monitoring/src/test/resources/3NodesPst.uct
##C 2007.05.01
##N
##ZFR
FFR1AA1  FR1          0 2 400.00    0.00 0.00000  1000.0 0.00000 0000.00 -1000.0 9000.00 -9000.0
FFR2AA1  FR2          0 2 400.00    0.00 0.00000     0.0 0.00000 0000.00 -1000.0 9000.00 -9000.0
FFR3AA1  FR3          0 2 400.00 -1000.0 0.00000     0.0 0.00000 0000.00 -1000.0 9000.00 -9000.0
##L
FFR1AA1  FFR2AA1  1 0 0.0000 10.000 0.000000   5000
FFR1AA1  FFR2AA1  2 0 0.0000 10.000 0.000000   5000
FFR1AA1  FFR2AA1  3 8 0.0000 10.000 0.000000   5000
FFR1AA1  FFR2AA1  4 8 0.0000 10.000 0.000000   5000
FFR1AA1  FFR3AA1  1 0 0.0000 10.000 0.000000   5000
FFR2AA1  FFR3AA1  1 0 0.0000 10.000 0.000000   5000
##T
FFR1AA1  FFR2AA1  5 0 400.0 400.0 1000. 0.0000 0.0000 0.000000 0.0	     5000 PST
##R
FFR1AA1  FFR2AA1  5                    -0.68 90.00 16 -16       SYMM
